Version 4
SHEET 1 1044 680
WIRE 240 -96 144 -96
WIRE 144 -64 144 -96
WIRE 240 -32 240 -96
WIRE 144 32 144 16
WIRE 240 64 240 48
WIRE 320 64 240 64
WIRE 464 64 400 64
WIRE 592 64 528 64
WIRE 704 64 592 64
WIRE 976 64 704 64
WIRE 240 80 240 64
WIRE 592 112 592 64
WIRE 704 112 704 64
WIRE 976 128 976 64
WIRE 192 160 -80 160
WIRE -80 208 -80 160
WIRE 592 208 592 176
WIRE 656 208 592 208
WIRE 704 208 704 192
WIRE 704 208 656 208
WIRE 656 304 656 208
WIRE 976 304 976 208
WIRE -80 336 -80 288
WIRE 240 336 240 176
FLAG 144 32 GNDCOM
FLAG 704 64 Vo
FLAG 656 304 GNDCOM
FLAG 976 304 GNDCOM
FLAG -80 336 GNDARDUINO
FLAG 240 336 GNDARDUINO
SYMBOL nmos 192 80 R0
SYMATTR InstName M1
SYMATTR Value IRF530
SYMBOL voltage 144 -80 R0
WINDOW 123 0 0 Left 0
WINDOW 39 0 0 Left 0
SYMATTR InstName V1
SYMATTR Value 10
SYMBOL Misc\\signal -80 192 R0
WINDOW 3 -479 92 Left 2
WINDOW 123 0 0 Left 0
WINDOW 39 0 0 Left 0
SYMATTR Value PULSE(0 5 0 1u 1u 0.01m 0.1m)
SYMATTR InstName V2
SYMBOL res 224 -48 R0
SYMATTR InstName R2
SYMATTR Value 1k
SYMBOL res 304 80 R270
WINDOW 0 32 56 VTop 2
WINDOW 3 0 56 VBottom 2
SYMATTR InstName R3
SYMATTR Value 1k
SYMBOL diode 464 80 R270
WINDOW 0 32 32 VTop 2
WINDOW 3 0 32 VBottom 2
SYMATTR InstName D1
SYMATTR Value 1N4148
SYMBOL cap 576 112 R0
SYMATTR InstName C1
SYMATTR Value 1µ
SYMBOL res 688 96 R0
SYMATTR InstName R4
SYMATTR Value 30k
SYMBOL res 960 112 R0
SYMATTR InstName RL
SYMATTR Value 10k
TEXT -464 360 Left 2 !.tran 0 4m 0 25u
